[General]
[Config test1]
network = TestNetwork


sim-time-limit = 20s

# host1
*.host1.numApps = 1
*.host1.app[0].typename = "BlockchainApp"
*.host1.app[0].localPort = 1000
*.host1.app[0].destPort = 1000
*.host1.app[0].destAddress = "host2"

# host2
*.host2.numApps = 1
*.host2.app[0].typename = "BlockchainApp"
*.host2.app[0].localPort = 1000
*.host2.app[0].destPort = 1000
*.host2.app[0].destAddress = "host1"

[Config test2]
network = TestNetwork2


sim-time-limit = 200s

# host1
*.host1.numApps = 1
*.host1.app[0].typename = "BlockchainApp"
*.host1.app[0].localPort = 1000
*.host1.app[0].destPort = 1000
*.host1.app[0].destAddress = "host2"

# host2
*.host2.numApps = 1
*.host2.app[0].typename = "BlockchainApp"
*.host2.app[0].localPort = 1000
*.host2.app[0].destPort = 1000
*.host2.app[0].destAddress = "host1"